Version 4
SHEET 1 880 680
WIRE 368 -16 224 -16
WIRE 224 0 224 -16
WIRE 48 176 -96 176
WIRE 176 176 176 160
WIRE 176 176 48 176
FLAG 48 256 0
FLAG 224 176 0
FLAG 368 64 0
FLAG -96 256 0
SYMBOL nmos 176 80 R0
SYMATTR InstName M1
SYMATTR Value Si7336ADP
SYMBOL res 32 160 R0
SYMATTR InstName R1
SYMATTR Value 10k
SYMBOL res 208 -16 R0
SYMATTR InstName R2
SYMATTR Value 13
SYMBOL voltage 368 -32 R0
WINDOW 123 0 0 Left 0
WINDOW 39 0 0 Left 0
SYMATTR InstName V1
SYMATTR Value 5v
SYMBOL voltage -96 160 R0
WINDOW 123 0 0 Left 0
WINDOW 39 0 0 Left 0
SYMATTR InstName V2
SYMATTR Value ""
TEXT -130 280 Left 2 !.dc V2 0 10 0.1
